POST http://localhost:3000/users
Content-Type: application/json

{
    "username": "Jakob",
    "password": "jakob123",
    "email": "jakob.opresnik@gmail.com",
    "admin": true
}

###

GET http://localhost:3000/users/getByToken
Authorization: Bearer eyJhbGciOiJIUzI1NiIsInR5cCI6IkpXVCJ9.eyJ1c2VybmFtZSI6Ikpha29iIiwicGFzc3dvcmQiOiJqYWtvYjEyMyIsImlhdCI6MTY1MTkzNTM2OH0.q8gbkokwI29S85pRcdqDHOWRmRpm-UelMLv46nIcVw8

###

GET http://localhost:3000/users/getAll

###

GET http://localhost:3000/users/eyJhbGciOiJIUzI1NiIsInR5cCI6IkpXVCJ9.eyJ1c2VybmFtZSI6Ikpha29iIiwicGFzc3dvcmQiOiJqYWtvYjEyMyIsImlhdCI6MTY1MTkzNTM2OH0.q8gbkokwI29S85pRcdqDHOWRmRpm-UelMLv46nIcVw8

###

POST http://localhost:3000/users/login
Content-Type: application/json

{
    "username": "Jakob",
    "password": "jakob123"
}

###

GET http://localhost:3000/users/logout

###

GET http://localhost:3000/mbajk
Authorization: Bearer eyJhbGciOiJIUzI1NiIsInR5cCI6IkpXVCJ9.eyJ1c2VybmFtZSI6Ikpha29iIiwicGFzc3dvcmQiOiJqYWtvYjEyMyIsImlhdCI6MTY1MTkzNTM2OH0.q8gbkokwI29S85pRcdqDHOWRmRpm-UelMLv46nIcVw8

###

POST http://localhost:3000/mbajk
Authorization: Bearer eyJhbGciOiJIUzI1NiIsInR5cCI6IkpXVCJ9.eyJ1c2VybmFtZSI6Ikpha29iIiwicGFzc3dvcmQiOiJqYWtvYjEyMyIsImlhdCI6MTY1MTkzNTM2OH0.q8gbkokwI29S85pRcdqDHOWRmRpm-UelMLv46nIcVw8
Content-Type: application/json

{
	"number" : "12",
    "name" : "TELEMACH - GLAVNI TRG - STARI PERON",
    "address" : "Glavni trg 20",
    "longitude" : "15.646833",
    "latitude" : " 46.5577328",
    "status" : "OPEN",
    "bikes" : "20",
    "capacity" : "20",
    "lastUpdateSensor" : "2022-05-05T09:51:18Z"
}

###

